<?xml version="1.0" encoding="UTF-8"?>

<!-- generated on 12/10/20 21:00:56 by Eclipse SUMO netedit Version 1.8.0
<configuration xmlns:xsi="http://www.w3.org/2001/XMLSchema-instance" xsi:noNamespaceSchemaLocation="http://sumo.dlr.de/xsd/netconvertConfiguration.xsd">

    <input>
        <sumo-net-file value="cfg\road.net.xml"/>
    </input>

    <output>
        <output-file value="cfg\road.net.xml"/>
    </output>

    <processing>
        <geometry.min-radius.fix.railways value="false"/>
        <geometry.max-grade.fix value="false"/>
        <offset.disable-normalization value="true"/>
        <lefthand value="false"/>
    </processing>

    <junctions>
        <no-turnarounds value="true"/>
        <junctions.corner-detail value="0"/>
        <junctions.limit-turn-speed value="-1"/>
        <rectangular-lane-cut value="false"/>
    </junctions>

    <pedestrian>
        <walkingareas value="false"/>
    </pedestrian>

    <report>
        <aggregate-warnings value="5"/>
    </report>

</configuration>
-->

<net version="1.6" xmlns:xsi="http://www.w3.org/2001/XMLSchema-instance" xsi:noNamespaceSchemaLocation="http://sumo.dlr.de/xsd/net_file.xsd">

    <location netOffset="0.00,254.00" convBoundary="0.00,0.00,50000.00,254.00" origBoundary="0.00,-254.00,50000.00,0.00" projParameter="!"/>

    <edge id=":node_0_1_0" function="internal">
        <lane id=":node_0_1_0_0" index="0" speed="36.11" length="0.10" shape="9400.00,242.80 9400.00,242.80"/>
        <lane id=":node_0_1_0_1" index="1" speed="36.11" length="0.10" shape="9400.00,246.00 9400.00,246.00"/>
        <lane id=":node_0_1_0_2" index="2" speed="36.11" length="0.10" shape="9400.00,249.20 9400.00,249.20"/>
        <lane id=":node_0_1_0_3" index="3" speed="36.11" length="0.10" shape="9400.00,252.40 9400.00,252.40"/>
    </edge>
    <edge id=":node_0_2_0" function="internal">
        <lane id=":node_0_2_0_0" index="0" speed="30.56" length="15.06" shape="9614.44,242.80 9619.13,242.36 9622.56,241.23 9625.43,239.68 9628.46,237.98"/>
    </edge>
    <edge id=":node_0_2_1" function="internal">
        <lane id=":node_0_2_1_0" index="0" speed="36.11" length="15.16" shape="9614.44,242.80 9629.60,242.80"/>
        <lane id=":node_0_2_1_1" index="1" speed="36.11" length="15.16" shape="9614.44,246.00 9629.60,246.00"/>
        <lane id=":node_0_2_1_2" index="2" speed="36.11" length="15.16" shape="9614.44,249.20 9629.60,249.20"/>
        <lane id=":node_0_2_1_3" index="3" speed="36.11" length="15.16" shape="9614.44,252.40 9629.60,252.40"/>
    </edge>
    <edge id=":node_0_3_0" function="internal">
        <lane id=":node_0_3_0_0" index="0" speed="30.56" length="16.77" shape="9771.54,237.98 9774.57,239.68 9777.44,241.23 9780.87,242.36 9785.56,242.80"/>
        <lane id=":node_0_3_0_1" index="1" speed="30.56" length="16.77" shape="9771.54,237.98 9774.48,240.18 9777.20,242.83 9780.59,245.06 9785.56,246.00"/>
        <lane id=":node_0_3_0_2" index="2" speed="30.56" length="16.77" shape="9771.54,237.98 9774.35,240.68 9776.86,244.43 9780.21,247.76 9785.56,249.20"/>
    </edge>
    <edge id=":node_0_3_3" function="internal">
        <lane id=":node_0_3_3_0" index="0" speed="36.11" length="15.16" shape="9770.40,242.80 9785.56,242.80"/>
        <lane id=":node_0_3_3_1" index="1" speed="36.11" length="15.16" shape="9770.40,246.00 9785.56,246.00"/>
        <lane id=":node_0_3_3_2" index="2" speed="36.11" length="15.16" shape="9770.40,249.20 9785.56,249.20"/>
        <lane id=":node_0_3_3_3" index="3" speed="36.11" length="15.16" shape="9770.40,252.40 9785.56,252.40"/>
    </edge>
    <edge id=":node_0_4_0" function="internal">
        <lane id=":node_0_4_0_0" index="0" speed="36.11" length="0.10" shape="10000.00,242.80 10000.00,242.80"/>
        <lane id=":node_0_4_0_1" index="1" speed="36.11" length="0.10" shape="10000.00,246.00 10000.00,246.00"/>
        <lane id=":node_0_4_0_2" index="2" speed="36.11" length="0.10" shape="10000.00,249.20 10000.00,249.20"/>
        <lane id=":node_0_4_0_3" index="3" speed="36.11" length="0.10" shape="10000.00,252.40 10000.00,252.40"/>
    </edge>
    <edge id=":node_0_5_0" function="internal">
        <lane id=":node_0_5_0_0" index="0" speed="25.00" length="6.22" shape="9701.60,199.55 9701.79,201.16 9702.37,202.53 9703.34,203.67 9704.70,204.56"/>
    </edge>
    <edge id=":node_0_5_1" function="internal">
        <lane id=":node_0_5_1_0" index="0" speed="25.00" length="2.53" shape="9701.60,199.55 9700.80,200.75 9700.00,201.15 9699.83,201.06"/>
    </edge>
    <edge id=":node_0_5_4" function="internal">
        <lane id=":node_0_5_4_0" index="0" speed="25.00" length="2.15" shape="9699.83,201.06 9699.20,200.75 9698.40,199.55"/>
    </edge>
    <edge id=":node_0_5_2" function="internal">
        <lane id=":node_0_5_2_0" index="0" speed="25.00" length="6.22" shape="9695.30,204.56 9696.66,203.67 9697.63,202.53 9698.21,201.16 9698.40,199.55"/>
    </edge>
    <edge id=":node_0_5_3" function="internal">
        <lane id=":node_0_5_3_0" index="0" speed="25.00" length="6.00" shape="9695.30,204.56 9697.65,203.68 9700.00,203.39 9701.12,203.52"/>
    </edge>
    <edge id=":node_0_5_5" function="internal">
        <lane id=":node_0_5_5_0" index="0" speed="25.00" length="3.75" shape="9701.12,203.52 9702.35,203.68 9704.70,204.56"/>
    </edge>
    <edge id=":node_0_6_0" function="internal">
        <lane id=":node_0_6_0_0" index="0" speed="25.00" length="0.10" shape="9698.40,4.00 9698.40,4.00"/>
    </edge>
    <edge id=":node_0_6_1" function="internal">
        <lane id=":node_0_6_1_0" index="0" speed="25.00" length="2.34" shape="9698.40,4.00 9699.20,2.80 9700.00,2.40"/>
    </edge>
    <edge id=":node_0_6_4" function="internal">
        <lane id=":node_0_6_4_0" index="0" speed="25.00" length="2.34" shape="9700.00,2.40 9700.80,2.80 9701.60,4.00"/>
    </edge>
    <edge id=":node_0_6_2" function="internal">
        <lane id=":node_0_6_2_0" index="0" speed="25.00" length="0.10" shape="9701.60,4.00 9701.60,4.00"/>
    </edge>
    <edge id=":node_0_6_3" function="internal">
        <lane id=":node_0_6_3_0" index="0" speed="25.00" length="2.34" shape="9701.60,4.00 9700.80,5.20 9700.00,5.60"/>
    </edge>
    <edge id=":node_0_6_5" function="internal">
        <lane id=":node_0_6_5_0" index="0" speed="25.00" length="2.34" shape="9700.00,5.60 9699.20,5.20 9698.40,4.00"/>
    </edge>
    <edge id=":node_0_7_0" function="internal">
        <lane id=":node_0_7_0_0" index="0" speed="25.00" length="4.67" shape="9698.40,0.00 9699.20,-1.20 9700.00,-1.60 9700.80,-1.20 9701.60,0.00"/>
    </edge>
    <edge id=":node_1_1_0" function="internal">
        <lane id=":node_1_1_0_0" index="0" speed="36.11" length="0.10" shape="19400.00,242.80 19400.00,242.80"/>
        <lane id=":node_1_1_0_1" index="1" speed="36.11" length="0.10" shape="19400.00,246.00 19400.00,246.00"/>
        <lane id=":node_1_1_0_2" index="2" speed="36.11" length="0.10" shape="19400.00,249.20 19400.00,249.20"/>
        <lane id=":node_1_1_0_3" index="3" speed="36.11" length="0.10" shape="19400.00,252.40 19400.00,252.40"/>
    </edge>
    <edge id=":node_1_2_0" function="internal">
        <lane id=":node_1_2_0_0" index="0" speed="30.56" length="15.06" shape="19614.44,242.80 19619.13,242.36 19622.56,241.23 19625.43,239.68 19628.46,237.98"/>
    </edge>
    <edge id=":node_1_2_1" function="internal">
        <lane id=":node_1_2_1_0" index="0" speed="36.11" length="15.16" shape="19614.44,242.80 19629.60,242.80"/>
        <lane id=":node_1_2_1_1" index="1" speed="36.11" length="15.16" shape="19614.44,246.00 19629.60,246.00"/>
        <lane id=":node_1_2_1_2" index="2" speed="36.11" length="15.16" shape="19614.44,249.20 19629.60,249.20"/>
        <lane id=":node_1_2_1_3" index="3" speed="36.11" length="15.16" shape="19614.44,252.40 19629.60,252.40"/>
    </edge>
    <edge id=":node_1_3_0" function="internal">
        <lane id=":node_1_3_0_0" index="0" speed="30.56" length="16.77" shape="19771.54,237.98 19774.57,239.68 19777.44,241.23 19780.87,242.36 19785.56,242.80"/>
        <lane id=":node_1_3_0_1" index="1" speed="30.56" length="16.77" shape="19771.54,237.98 19774.48,240.18 19777.20,242.83 19780.59,245.06 19785.56,246.00"/>
        <lane id=":node_1_3_0_2" index="2" speed="30.56" length="16.77" shape="19771.54,237.98 19774.35,240.68 19776.86,244.43 19780.21,247.76 19785.56,249.20"/>
    </edge>
    <edge id=":node_1_3_3" function="internal">
        <lane id=":node_1_3_3_0" index="0" speed="36.11" length="15.16" shape="19770.40,242.80 19785.56,242.80"/>
        <lane id=":node_1_3_3_1" index="1" speed="36.11" length="15.16" shape="19770.40,246.00 19785.56,246.00"/>
        <lane id=":node_1_3_3_2" index="2" speed="36.11" length="15.16" shape="19770.40,249.20 19785.56,249.20"/>
        <lane id=":node_1_3_3_3" index="3" speed="36.11" length="15.16" shape="19770.40,252.40 19785.56,252.40"/>
    </edge>
    <edge id=":node_1_4_0" function="internal">
        <lane id=":node_1_4_0_0" index="0" speed="36.11" length="0.10" shape="20000.00,242.80 20000.00,242.80"/>
        <lane id=":node_1_4_0_1" index="1" speed="36.11" length="0.10" shape="20000.00,246.00 20000.00,246.00"/>
        <lane id=":node_1_4_0_2" index="2" speed="36.11" length="0.10" shape="20000.00,249.20 20000.00,249.20"/>
        <lane id=":node_1_4_0_3" index="3" speed="36.11" length="0.10" shape="20000.00,252.40 20000.00,252.40"/>
    </edge>
    <edge id=":node_1_5_0" function="internal">
        <lane id=":node_1_5_0_0" index="0" speed="25.00" length="6.22" shape="19701.60,199.55 19701.79,201.16 19702.37,202.53 19703.34,203.67 19704.70,204.56"/>
    </edge>
    <edge id=":node_1_5_1" function="internal">
        <lane id=":node_1_5_1_0" index="0" speed="25.00" length="2.53" shape="19701.60,199.55 19700.80,200.75 19700.00,201.15 19699.83,201.06"/>
    </edge>
    <edge id=":node_1_5_4" function="internal">
        <lane id=":node_1_5_4_0" index="0" speed="25.00" length="2.15" shape="19699.83,201.06 19699.20,200.75 19698.40,199.55"/>
    </edge>
    <edge id=":node_1_5_2" function="internal">
        <lane id=":node_1_5_2_0" index="0" speed="25.00" length="6.22" shape="19695.30,204.56 19696.66,203.67 19697.63,202.53 19698.21,201.16 19698.40,199.55"/>
    </edge>
    <edge id=":node_1_5_3" function="internal">
        <lane id=":node_1_5_3_0" index="0" speed="25.00" length="6.00" shape="19695.30,204.56 19697.65,203.68 19700.00,203.39 19701.12,203.52"/>
    </edge>
    <edge id=":node_1_5_5" function="internal">
        <lane id=":node_1_5_5_0" index="0" speed="25.00" length="3.75" shape="19701.12,203.52 19702.35,203.68 19704.70,204.56"/>
    </edge>
    <edge id=":node_1_6_0" function="internal">
        <lane id=":node_1_6_0_0" index="0" speed="25.00" length="0.10" shape="19698.40,4.00 19698.40,4.00"/>
    </edge>
    <edge id=":node_1_6_1" function="internal">
        <lane id=":node_1_6_1_0" index="0" speed="25.00" length="2.34" shape="19698.40,4.00 19699.20,2.80 19700.00,2.40"/>
    </edge>
    <edge id=":node_1_6_4" function="internal">
        <lane id=":node_1_6_4_0" index="0" speed="25.00" length="2.34" shape="19700.00,2.40 19700.80,2.80 19701.60,4.00"/>
    </edge>
    <edge id=":node_1_6_2" function="internal">
        <lane id=":node_1_6_2_0" index="0" speed="25.00" length="0.10" shape="19701.60,4.00 19701.60,4.00"/>
    </edge>
    <edge id=":node_1_6_3" function="internal">
        <lane id=":node_1_6_3_0" index="0" speed="25.00" length="2.34" shape="19701.60,4.00 19700.80,5.20 19700.00,5.60"/>
    </edge>
    <edge id=":node_1_6_5" function="internal">
        <lane id=":node_1_6_5_0" index="0" speed="25.00" length="2.34" shape="19700.00,5.60 19699.20,5.20 19698.40,4.00"/>
    </edge>
    <edge id=":node_1_7_0" function="internal">
        <lane id=":node_1_7_0_0" index="0" speed="25.00" length="4.67" shape="19698.40,0.00 19699.20,-1.20 19700.00,-1.60 19700.80,-1.20 19701.60,0.00"/>
    </edge>
    <edge id=":node_2_1_0" function="internal">
        <lane id=":node_2_1_0_0" index="0" speed="36.11" length="0.10" shape="29400.00,242.80 29400.00,242.80"/>
        <lane id=":node_2_1_0_1" index="1" speed="36.11" length="0.10" shape="29400.00,246.00 29400.00,246.00"/>
        <lane id=":node_2_1_0_2" index="2" speed="36.11" length="0.10" shape="29400.00,249.20 29400.00,249.20"/>
        <lane id=":node_2_1_0_3" index="3" speed="36.11" length="0.10" shape="29400.00,252.40 29400.00,252.40"/>
    </edge>
    <edge id=":node_2_2_0" function="internal">
        <lane id=":node_2_2_0_0" index="0" speed="30.56" length="15.06" shape="29614.44,242.80 29619.13,242.36 29622.56,241.23 29625.43,239.68 29628.46,237.98"/>
    </edge>
    <edge id=":node_2_2_1" function="internal">
        <lane id=":node_2_2_1_0" index="0" speed="36.11" length="15.16" shape="29614.44,242.80 29629.60,242.80"/>
        <lane id=":node_2_2_1_1" index="1" speed="36.11" length="15.16" shape="29614.44,246.00 29629.60,246.00"/>
        <lane id=":node_2_2_1_2" index="2" speed="36.11" length="15.16" shape="29614.44,249.20 29629.60,249.20"/>
        <lane id=":node_2_2_1_3" index="3" speed="36.11" length="15.16" shape="29614.44,252.40 29629.60,252.40"/>
    </edge>
    <edge id=":node_2_3_0" function="internal">
        <lane id=":node_2_3_0_0" index="0" speed="30.56" length="16.77" shape="29771.54,237.98 29774.57,239.68 29777.44,241.23 29780.87,242.36 29785.56,242.80"/>
        <lane id=":node_2_3_0_1" index="1" speed="30.56" length="16.77" shape="29771.54,237.98 29774.48,240.18 29777.20,242.83 29780.59,245.06 29785.56,246.00"/>
        <lane id=":node_2_3_0_2" index="2" speed="30.56" length="16.77" shape="29771.54,237.98 29774.35,240.68 29776.86,244.43 29780.21,247.76 29785.56,249.20"/>
    </edge>
    <edge id=":node_2_3_3" function="internal">
        <lane id=":node_2_3_3_0" index="0" speed="36.11" length="15.16" shape="29770.40,242.80 29785.56,242.80"/>
        <lane id=":node_2_3_3_1" index="1" speed="36.11" length="15.16" shape="29770.40,246.00 29785.56,246.00"/>
        <lane id=":node_2_3_3_2" index="2" speed="36.11" length="15.16" shape="29770.40,249.20 29785.56,249.20"/>
        <lane id=":node_2_3_3_3" index="3" speed="36.11" length="15.16" shape="29770.40,252.40 29785.56,252.40"/>
    </edge>
    <edge id=":node_2_4_0" function="internal">
        <lane id=":node_2_4_0_0" index="0" speed="36.11" length="0.10" shape="30000.00,242.80 30000.00,242.80"/>
        <lane id=":node_2_4_0_1" index="1" speed="36.11" length="0.10" shape="30000.00,246.00 30000.00,246.00"/>
        <lane id=":node_2_4_0_2" index="2" speed="36.11" length="0.10" shape="30000.00,249.20 30000.00,249.20"/>
        <lane id=":node_2_4_0_3" index="3" speed="36.11" length="0.10" shape="30000.00,252.40 30000.00,252.40"/>
    </edge>
    <edge id=":node_2_5_0" function="internal">
        <lane id=":node_2_5_0_0" index="0" speed="25.00" length="6.22" shape="29701.60,199.55 29701.79,201.16 29702.37,202.53 29703.34,203.67 29704.70,204.56"/>
    </edge>
    <edge id=":node_2_5_1" function="internal">
        <lane id=":node_2_5_1_0" index="0" speed="25.00" length="2.53" shape="29701.60,199.55 29700.80,200.75 29700.00,201.15 29699.83,201.06"/>
    </edge>
    <edge id=":node_2_5_4" function="internal">
        <lane id=":node_2_5_4_0" index="0" speed="25.00" length="2.15" shape="29699.83,201.06 29699.20,200.75 29698.40,199.55"/>
    </edge>
    <edge id=":node_2_5_2" function="internal">
        <lane id=":node_2_5_2_0" index="0" speed="25.00" length="6.22" shape="29695.30,204.56 29696.66,203.67 29697.63,202.53 29698.21,201.16 29698.40,199.55"/>
    </edge>
    <edge id=":node_2_5_3" function="internal">
        <lane id=":node_2_5_3_0" index="0" speed="25.00" length="6.00" shape="29695.30,204.56 29697.65,203.68 29700.00,203.39 29701.12,203.52"/>
    </edge>
    <edge id=":node_2_5_5" function="internal">
        <lane id=":node_2_5_5_0" index="0" speed="25.00" length="3.75" shape="29701.12,203.52 29702.35,203.68 29704.70,204.56"/>
    </edge>
    <edge id=":node_2_6_0" function="internal">
        <lane id=":node_2_6_0_0" index="0" speed="25.00" length="0.10" shape="29698.40,4.00 29698.40,4.00"/>
    </edge>
    <edge id=":node_2_6_1" function="internal">
        <lane id=":node_2_6_1_0" index="0" speed="25.00" length="2.34" shape="29698.40,4.00 29699.20,2.80 29700.00,2.40"/>
    </edge>
    <edge id=":node_2_6_4" function="internal">
        <lane id=":node_2_6_4_0" index="0" speed="25.00" length="2.34" shape="29700.00,2.40 29700.80,2.80 29701.60,4.00"/>
    </edge>
    <edge id=":node_2_6_2" function="internal">
        <lane id=":node_2_6_2_0" index="0" speed="25.00" length="0.10" shape="29701.60,4.00 29701.60,4.00"/>
    </edge>
    <edge id=":node_2_6_3" function="internal">
        <lane id=":node_2_6_3_0" index="0" speed="25.00" length="2.34" shape="29701.60,4.00 29700.80,5.20 29700.00,5.60"/>
    </edge>
    <edge id=":node_2_6_5" function="internal">
        <lane id=":node_2_6_5_0" index="0" speed="25.00" length="2.34" shape="29700.00,5.60 29699.20,5.20 29698.40,4.00"/>
    </edge>
    <edge id=":node_2_7_0" function="internal">
        <lane id=":node_2_7_0_0" index="0" speed="25.00" length="4.67" shape="29698.40,0.00 29699.20,-1.20 29700.00,-1.60 29700.80,-1.20 29701.60,0.00"/>
    </edge>
    <edge id=":node_3_1_0" function="internal">
        <lane id=":node_3_1_0_0" index="0" speed="36.11" length="0.10" shape="39400.00,242.80 39400.00,242.80"/>
        <lane id=":node_3_1_0_1" index="1" speed="36.11" length="0.10" shape="39400.00,246.00 39400.00,246.00"/>
        <lane id=":node_3_1_0_2" index="2" speed="36.11" length="0.10" shape="39400.00,249.20 39400.00,249.20"/>
        <lane id=":node_3_1_0_3" index="3" speed="36.11" length="0.10" shape="39400.00,252.40 39400.00,252.40"/>
    </edge>
    <edge id=":node_3_2_0" function="internal">
        <lane id=":node_3_2_0_0" index="0" speed="30.56" length="15.06" shape="39614.44,242.80 39619.13,242.36 39622.56,241.23 39625.43,239.68 39628.46,237.98"/>
    </edge>
    <edge id=":node_3_2_1" function="internal">
        <lane id=":node_3_2_1_0" index="0" speed="36.11" length="15.16" shape="39614.44,242.80 39629.60,242.80"/>
        <lane id=":node_3_2_1_1" index="1" speed="36.11" length="15.16" shape="39614.44,246.00 39629.60,246.00"/>
        <lane id=":node_3_2_1_2" index="2" speed="36.11" length="15.16" shape="39614.44,249.20 39629.60,249.20"/>
        <lane id=":node_3_2_1_3" index="3" speed="36.11" length="15.16" shape="39614.44,252.40 39629.60,252.40"/>
    </edge>
    <edge id=":node_3_3_0" function="internal">
        <lane id=":node_3_3_0_0" index="0" speed="30.56" length="16.77" shape="39771.54,237.98 39774.57,239.68 39777.44,241.23 39780.87,242.36 39785.56,242.80"/>
        <lane id=":node_3_3_0_1" index="1" speed="30.56" length="16.77" shape="39771.54,237.98 39774.48,240.18 39777.20,242.83 39780.59,245.06 39785.56,246.00"/>
        <lane id=":node_3_3_0_2" index="2" speed="30.56" length="16.77" shape="39771.54,237.98 39774.35,240.68 39776.86,244.43 39780.21,247.76 39785.56,249.20"/>
    </edge>
    <edge id=":node_3_3_3" function="internal">
        <lane id=":node_3_3_3_0" index="0" speed="36.11" length="15.16" shape="39770.40,242.80 39785.56,242.80"/>
        <lane id=":node_3_3_3_1" index="1" speed="36.11" length="15.16" shape="39770.40,246.00 39785.56,246.00"/>
        <lane id=":node_3_3_3_2" index="2" speed="36.11" length="15.16" shape="39770.40,249.20 39785.56,249.20"/>
        <lane id=":node_3_3_3_3" index="3" speed="36.11" length="15.16" shape="39770.40,252.40 39785.56,252.40"/>
    </edge>
    <edge id=":node_3_4_0" function="internal">
        <lane id=":node_3_4_0_0" index="0" speed="36.11" length="0.10" shape="40000.00,242.80 40000.00,242.80"/>
        <lane id=":node_3_4_0_1" index="1" speed="36.11" length="0.10" shape="40000.00,246.00 40000.00,246.00"/>
        <lane id=":node_3_4_0_2" index="2" speed="36.11" length="0.10" shape="40000.00,249.20 40000.00,249.20"/>
        <lane id=":node_3_4_0_3" index="3" speed="36.11" length="0.10" shape="40000.00,252.40 40000.00,252.40"/>
    </edge>
    <edge id=":node_3_5_0" function="internal">
        <lane id=":node_3_5_0_0" index="0" speed="25.00" length="6.22" shape="39701.60,199.55 39701.79,201.16 39702.37,202.53 39703.34,203.67 39704.70,204.56"/>
    </edge>
    <edge id=":node_3_5_1" function="internal">
        <lane id=":node_3_5_1_0" index="0" speed="25.00" length="2.53" shape="39701.60,199.55 39700.80,200.75 39700.00,201.15 39699.83,201.06"/>
    </edge>
    <edge id=":node_3_5_4" function="internal">
        <lane id=":node_3_5_4_0" index="0" speed="25.00" length="2.15" shape="39699.83,201.06 39699.20,200.75 39698.40,199.55"/>
    </edge>
    <edge id=":node_3_5_2" function="internal">
        <lane id=":node_3_5_2_0" index="0" speed="25.00" length="6.22" shape="39695.30,204.56 39696.66,203.67 39697.63,202.53 39698.21,201.16 39698.40,199.55"/>
    </edge>
    <edge id=":node_3_5_3" function="internal">
        <lane id=":node_3_5_3_0" index="0" speed="25.00" length="6.00" shape="39695.30,204.56 39697.65,203.68 39700.00,203.39 39701.12,203.52"/>
    </edge>
    <edge id=":node_3_5_5" function="internal">
        <lane id=":node_3_5_5_0" index="0" speed="25.00" length="3.75" shape="39701.12,203.52 39702.35,203.68 39704.70,204.56"/>
    </edge>
    <edge id=":node_3_6_0" function="internal">
        <lane id=":node_3_6_0_0" index="0" speed="25.00" length="0.10" shape="39698.40,4.00 39698.40,4.00"/>
    </edge>
    <edge id=":node_3_6_1" function="internal">
        <lane id=":node_3_6_1_0" index="0" speed="25.00" length="2.34" shape="39698.40,4.00 39699.20,2.80 39700.00,2.40"/>
    </edge>
    <edge id=":node_3_6_4" function="internal">
        <lane id=":node_3_6_4_0" index="0" speed="25.00" length="2.34" shape="39700.00,2.40 39700.80,2.80 39701.60,4.00"/>
    </edge>
    <edge id=":node_3_6_2" function="internal">
        <lane id=":node_3_6_2_0" index="0" speed="25.00" length="0.10" shape="39701.60,4.00 39701.60,4.00"/>
    </edge>
    <edge id=":node_3_6_3" function="internal">
        <lane id=":node_3_6_3_0" index="0" speed="25.00" length="2.34" shape="39701.60,4.00 39700.80,5.20 39700.00,5.60"/>
    </edge>
    <edge id=":node_3_6_5" function="internal">
        <lane id=":node_3_6_5_0" index="0" speed="25.00" length="2.34" shape="39700.00,5.60 39699.20,5.20 39698.40,4.00"/>
    </edge>
    <edge id=":node_3_7_0" function="internal">
        <lane id=":node_3_7_0_0" index="0" speed="25.00" length="4.67" shape="39698.40,0.00 39699.20,-1.20 39700.00,-1.60 39700.80,-1.20 39701.60,0.00"/>
    </edge>
    <edge id=":node_4_1_0" function="internal">
        <lane id=":node_4_1_0_0" index="0" speed="36.11" length="0.10" shape="49400.00,242.80 49400.00,242.80"/>
        <lane id=":node_4_1_0_1" index="1" speed="36.11" length="0.10" shape="49400.00,246.00 49400.00,246.00"/>
        <lane id=":node_4_1_0_2" index="2" speed="36.11" length="0.10" shape="49400.00,249.20 49400.00,249.20"/>
        <lane id=":node_4_1_0_3" index="3" speed="36.11" length="0.10" shape="49400.00,252.40 49400.00,252.40"/>
    </edge>
    <edge id=":node_4_2_0" function="internal">
        <lane id=":node_4_2_0_0" index="0" speed="30.56" length="15.06" shape="49614.44,242.80 49619.13,242.36 49622.56,241.23 49625.43,239.68 49628.46,237.98"/>
    </edge>
    <edge id=":node_4_2_1" function="internal">
        <lane id=":node_4_2_1_0" index="0" speed="36.11" length="15.16" shape="49614.44,242.80 49629.60,242.80"/>
        <lane id=":node_4_2_1_1" index="1" speed="36.11" length="15.16" shape="49614.44,246.00 49629.60,246.00"/>
        <lane id=":node_4_2_1_2" index="2" speed="36.11" length="15.16" shape="49614.44,249.20 49629.60,249.20"/>
        <lane id=":node_4_2_1_3" index="3" speed="36.11" length="15.16" shape="49614.44,252.40 49629.60,252.40"/>
    </edge>
    <edge id=":node_4_3_0" function="internal">
        <lane id=":node_4_3_0_0" index="0" speed="30.56" length="16.77" shape="49771.54,237.98 49774.57,239.68 49777.44,241.23 49780.87,242.36 49785.56,242.80"/>
        <lane id=":node_4_3_0_1" index="1" speed="30.56" length="16.77" shape="49771.54,237.98 49774.48,240.18 49777.20,242.83 49780.59,245.06 49785.56,246.00"/>
        <lane id=":node_4_3_0_2" index="2" speed="30.56" length="16.77" shape="49771.54,237.98 49774.35,240.68 49776.86,244.43 49780.21,247.76 49785.56,249.20"/>
    </edge>
    <edge id=":node_4_3_3" function="internal">
        <lane id=":node_4_3_3_0" index="0" speed="36.11" length="15.16" shape="49770.40,242.80 49785.56,242.80"/>
        <lane id=":node_4_3_3_1" index="1" speed="36.11" length="15.16" shape="49770.40,246.00 49785.56,246.00"/>
        <lane id=":node_4_3_3_2" index="2" speed="36.11" length="15.16" shape="49770.40,249.20 49785.56,249.20"/>
        <lane id=":node_4_3_3_3" index="3" speed="36.11" length="15.16" shape="49770.40,252.40 49785.56,252.40"/>
    </edge>
    <edge id=":node_4_5_0" function="internal">
        <lane id=":node_4_5_0_0" index="0" speed="25.00" length="6.22" shape="49701.60,199.55 49701.79,201.16 49702.37,202.53 49703.34,203.67 49704.70,204.56"/>
    </edge>
    <edge id=":node_4_5_1" function="internal">
        <lane id=":node_4_5_1_0" index="0" speed="25.00" length="2.53" shape="49701.60,199.55 49700.80,200.75 49700.00,201.15 49699.83,201.06"/>
    </edge>
    <edge id=":node_4_5_4" function="internal">
        <lane id=":node_4_5_4_0" index="0" speed="25.00" length="2.15" shape="49699.83,201.06 49699.20,200.75 49698.40,199.55"/>
    </edge>
    <edge id=":node_4_5_2" function="internal">
        <lane id=":node_4_5_2_0" index="0" speed="25.00" length="6.22" shape="49695.30,204.56 49696.66,203.67 49697.63,202.53 49698.21,201.16 49698.40,199.55"/>
    </edge>
    <edge id=":node_4_5_3" function="internal">
        <lane id=":node_4_5_3_0" index="0" speed="25.00" length="6.00" shape="49695.30,204.56 49697.65,203.68 49700.00,203.39 49701.12,203.52"/>
    </edge>
    <edge id=":node_4_5_5" function="internal">
        <lane id=":node_4_5_5_0" index="0" speed="25.00" length="3.75" shape="49701.12,203.52 49702.35,203.68 49704.70,204.56"/>
    </edge>
    <edge id=":node_4_6_0" function="internal">
        <lane id=":node_4_6_0_0" index="0" speed="25.00" length="0.10" shape="49698.40,4.00 49698.40,4.00"/>
    </edge>
    <edge id=":node_4_6_1" function="internal">
        <lane id=":node_4_6_1_0" index="0" speed="25.00" length="2.34" shape="49698.40,4.00 49699.20,2.80 49700.00,2.40"/>
    </edge>
    <edge id=":node_4_6_4" function="internal">
        <lane id=":node_4_6_4_0" index="0" speed="25.00" length="2.34" shape="49700.00,2.40 49700.80,2.80 49701.60,4.00"/>
    </edge>
    <edge id=":node_4_6_2" function="internal">
        <lane id=":node_4_6_2_0" index="0" speed="25.00" length="0.10" shape="49701.60,4.00 49701.60,4.00"/>
    </edge>
    <edge id=":node_4_6_3" function="internal">
        <lane id=":node_4_6_3_0" index="0" speed="25.00" length="2.34" shape="49701.60,4.00 49700.80,5.20 49700.00,5.60"/>
    </edge>
    <edge id=":node_4_6_5" function="internal">
        <lane id=":node_4_6_5_0" index="0" speed="25.00" length="2.34" shape="49700.00,5.60 49699.20,5.20 49698.40,4.00"/>
    </edge>
    <edge id=":node_4_7_0" function="internal">
        <lane id=":node_4_7_0_0" index="0" speed="25.00" length="4.67" shape="49698.40,0.00 49699.20,-1.20 49700.00,-1.60 49700.80,-1.20 49701.60,0.00"/>
    </edge>

    <edge id="absorption_0" from="node_0_6" to="node_0_7" priority="7">
        <lane id="absorption_0_0" index="0" speed="25.00" length="4.00" shape="9698.40,4.00 9698.40,0.00"/>
    </edge>
    <edge id="absorption_1" from="node_1_6" to="node_1_7" priority="7">
        <lane id="absorption_1_0" index="0" speed="25.00" length="4.00" shape="19698.40,4.00 19698.40,0.00"/>
    </edge>
    <edge id="absorption_2" from="node_2_6" to="node_2_7" priority="7">
        <lane id="absorption_2_0" index="0" speed="25.00" length="4.00" shape="29698.40,4.00 29698.40,0.00"/>
    </edge>
    <edge id="absorption_3" from="node_3_6" to="node_3_7" priority="7">
        <lane id="absorption_3_0" index="0" speed="25.00" length="4.00" shape="39698.40,4.00 39698.40,0.00"/>
    </edge>
    <edge id="absorption_4" from="node_4_6" to="node_4_7" priority="7">
        <lane id="absorption_4_0" index="0" speed="25.00" length="4.00" shape="49698.40,4.00 49698.40,0.00"/>
    </edge>
    <edge id="edge_0_0" from="node_0_0" to="node_0_1" priority="7" length="19400.00">
        <lane id="edge_0_0_0" index="0" speed="36.11" length="19400.00" shape="0.00,242.80 9400.00,242.80"/>
        <lane id="edge_0_0_1" index="1" speed="36.11" length="19400.00" shape="0.00,246.00 9400.00,246.00"/>
        <lane id="edge_0_0_2" index="2" speed="36.11" length="19400.00" shape="0.00,249.20 9400.00,249.20"/>
        <lane id="edge_0_0_3" index="3" speed="36.11" length="19400.00" shape="0.00,252.40 9400.00,252.40"/>
    </edge>
    <edge id="edge_0_1" from="node_0_1" to="node_0_2" priority="7">
        <lane id="edge_0_1_0" index="0" speed="36.11" length="214.44" shape="9400.00,242.80 9614.44,242.80"/>
        <lane id="edge_0_1_1" index="1" speed="36.11" length="214.44" shape="9400.00,246.00 9614.44,246.00"/>
        <lane id="edge_0_1_2" index="2" speed="36.11" length="214.44" shape="9400.00,249.20 9614.44,249.20"/>
        <lane id="edge_0_1_3" index="3" speed="36.11" length="214.44" shape="9400.00,252.40 9614.44,252.40"/>
    </edge>
    <edge id="edge_0_2" from="node_0_2" to="node_0_3" priority="7">